[General]
network = ErrorDetectorWithRecovery
sim-time-limit = 1000s
*.simParams.nbNodes =300
*.simParams.clockLength = 50
*.simParams.delaySend=2
*.simParams.PEAKSPERDELAY=300.0
*.simParams.deliveryOption=5
*.simParams.recovering=true
**.vector-recording = false
**.scalar-recording = false
**.statistic-recording = false
