[General]
network = ErrorDetectorWithRecovery
sim-time-limit = 1000s
*.simParams.nbNodes =290
*.simParams.clockLength = 125
*.simParams.delaySend=2
*.simParams.PEAKSPERDELAY=290.0
**.vector-recording = false
**.scalar-recording = false
**.statistic-recording = false
